  145
FINAL HEAT OF FORMATION =  -208.899666
 C     7.059973    -6.832058    -1.658040
 C     7.182258    -5.601730    -0.799089
 N     7.737796    -5.806104     0.411738
 C     7.742315    -4.788674     1.450942
 C     8.753381    -5.146999     2.535161
 N     6.804460    -4.343244    -1.220848
 C     8.062162    -3.402693     0.881832
 N     9.184123    -3.312157     0.151875
 C     9.678714    -2.027564    -0.313561
 C    10.938062    -2.220519    -1.147930
 N     7.229953    -2.245724     1.198773
 C     8.630537    -1.276211    -1.150110
 N     8.016968    -2.024527    -2.077827
 C     7.003664    -1.462906    -2.950870
 C     6.573361    -2.500299    -3.978955
 N     8.437473     0.082420    -1.004345
 C     5.786656    -0.977593    -2.153324
 N     5.358604    -1.825937    -1.213595
 C     4.237005    -1.492647    -0.356040
 C     4.014418    -2.602528     0.660916
 N     5.188495     0.237430    -2.418508
 C     4.495463    -0.158322     0.361678
 N     5.703098    -0.063820     0.923580
 C     6.116027     1.109502     1.668203
 C     7.528602     0.909187     2.198835
 N     3.533912     0.829706     0.421839
 C     6.056045     2.355835     0.775318
 N     6.644267     2.214103    -0.414610
 C     6.688214     3.301664    -1.372367
 C     7.362739     2.826486    -2.651435
 N     5.451161     3.520923     1.200858
 C     5.269320     3.804262    -1.678322
 N     4.393356     2.835780    -1.951778
 C     3.014565     3.117818    -2.297066
 C     2.278921     1.810364    -2.555599
 N     4.966188     5.150460    -1.694523
 C     2.325029     3.897585    -1.168848
 N     2.509762     3.380032     0.047196
 C     1.922370     3.980162     1.227716
 C     2.344699     3.192955     2.460167
 N     1.564448     5.020668    -1.423016
 C     2.361868     5.446235     1.357884
 N     3.673878     5.637567     1.199746
 C     4.272557     6.952196     1.304943
 C     5.772060     6.844875     1.065300
 N     1.462386     6.453667     1.641457
 C     3.640342     7.918893     0.290873
 N     3.532943     7.422642    -0.943646
 C     2.986209     8.195831    -2.039550
 C     3.013169     7.352322    -3.306981
 N     3.249817     9.192727     0.650370
 C     1.541525     8.650343    -1.750172
 N     0.783755     7.702167    -1.185362
 C    -0.614407     7.896345    -0.865368
 C    -1.216288     6.560092    -0.448630
 N     1.100590     9.912470    -2.092245
 C    -0.826071     8.916101     0.271429
 N     0.136803     8.894269     1.202884
 C     0.157437     9.790387     2.337019
 C     1.152463     9.267625     3.366289
 N    -1.945500     9.721854     0.316603
 C     0.556719    11.224837     1.939684
 N     1.414255    11.282099     0.916707
 C     1.877323    12.514968     0.339471
 N     0.063896    12.385746     2.675222
 H     6.616265    -6.565716    -2.613153
 H     8.038949    -7.275043    -1.827767
 H     6.427724    -7.567936    -1.165862
 H     7.917578    -6.752033     0.714273
 H     6.740144    -4.711457     1.897783
 H     8.476425    -6.083726     3.013845
 H     8.768098    -4.368416     3.293081
 H     9.753977    -5.247117     2.120195
 H     9.733708    -4.132627    -0.047723
 H     9.894644    -1.393087     0.556281
 H    11.721299    -2.688779    -0.555446
 H    11.298830    -1.254576    -1.490338
 H    10.728500    -2.838049    -2.019211
 H     8.014015    -3.030975    -1.984402
 H     7.430129    -0.582019    -3.445167
 H     7.416090    -2.786863    -4.603829
 H     5.793992    -2.088551    -4.614096
 H     6.185765    -3.383310    -3.475399
 H     5.831519    -2.705927    -1.058879
 H     3.340392    -1.349800    -0.973786
 H     3.787698    -3.537512     0.152454
 H     3.181830    -2.347807     1.310906
 H     4.908553    -2.731939     1.266785
 H     6.350189    -0.840357     0.886499
 H     5.413628     1.280184     2.495426
 H     7.562792     0.036235     2.846988
 H     7.839021     1.782183     2.766594
 H     8.218431     0.762438     1.370626
 H     7.125320     1.358003    -0.660921
 H     7.237258     4.148375    -0.937944
 H     8.367655     2.472681    -2.431680
 H     7.422061     3.642518    -3.366445
 H     6.788743     2.012684    -3.088736
 H     4.680529     1.864936    -1.953243
 H     2.987785     3.760205    -3.187857
 H     2.759285     1.267000    -3.366239
 H     1.245521     2.011028    -2.825210
 H     2.299781     1.194838    -1.659186
 H     3.049211     2.532436     0.174530
 H     0.828193     3.985615     1.128067
 H     2.023038     2.157863     2.367604
 H     1.898344     3.626688     3.350977
 H     3.427792     3.217455     2.555695
 H     4.292944     4.856674     1.020327
 H     4.068421     7.365437     2.302472
 H     6.217257     6.170577     1.793882
 H     6.235443     7.823715     1.155377
 H     5.954656     6.453405     0.067175
 H     3.875589     6.493671    -1.157137
 H     3.579140     9.111277    -2.170826
 H     4.032548     7.041109    -3.526719
 H     2.625076     7.925849    -4.144380
 H     2.397833     6.466836    -3.164315
 H     1.164832     6.777947    -1.026660
 H    -1.132910     8.301898    -1.743748
 H    -1.094445     5.827599    -1.244029
 H    -2.273436     6.681346    -0.228580
 H    -0.705002     6.200931     0.442061
 H     0.870417     8.199736     1.152446
 H    -0.852277     9.852487     2.761727
 H     0.888490     8.254791     3.662951
 H     1.157599     9.912294     4.241108
 H     2.147011     9.256480     2.924987
 H     1.765873    10.428264     0.505691
 H     2.966196    12.576132     0.400897
 H     1.430740    13.336981     0.897057
 H     1.575368    12.570393    -0.708103
 H     0.569942    13.228029     2.366391
 H    -1.902356    10.279592     1.080721
 H     0.193430    10.009501    -1.838367
 H     2.884863     9.635440    -0.103037
 H     0.594381     6.085810     1.731223
 H     1.557873     5.193376    -2.354111
 H     5.744676     5.651741    -1.495822
 H     5.113321     3.399358     2.077154
 H     2.754102     0.539215    -0.030178
 H     5.645351     0.665840    -3.128829
 H     9.029740     0.416499    -0.345239
 H     6.462814    -2.535057     1.822217
 H     6.436472    -4.399391    -2.091618
